# coding=utf-8
# --------------------------------------------------------------------
# Copyright (C) 1991 - 2018 - EDF R&D - www.code-aster.org
# This file is part of code_aster.
#
# code_aster is free software: you can redistribute it and/or modify
# it under the terms of the GNU General Public License as published by
# the Free Software Foundation, either version 3 of the License, or
# (at your option) any later version.
#
# code_aster is distributed in the hope that it will be useful,
# but WITHOUT ANY WARRANTY; without even the implied warranty of
# MERCHANTABILITY or FITNESS FOR A PARTICULAR PURPOSE.  See the
# GNU General Public License for more details.
#
# You should have received a copy of the GNU General Public License
# along with code_aster.  If not, see <http://www.gnu.org/licenses/>.
# --------------------------------------------------------------------

#
#
# --------------------------------------------------------------------------------------------------
#
#                   DISCRET COMPORTEMENT ECROUISSAGE TRACTION
#
#   Validation du comportement
#
#   Segment : K_T_D_L     K_TR_D_L
#   Noeud   : K_T_D_N     K_TR_D_N
#
# --------------------------------------------------------------------------------------------------
import numpy as NU

DEBUT(CODE=_F(NIV_PUB_WEB='INTERNET',),)

MAIL=LIRE_MAILLAGE(FORMAT="ASTER",)

MODE=AFFE_MODELE(
    MAILLAGE=MAIL,
    AFFE=(
        _F(GROUP_MA='FUSIB01',  PHENOMENE='MECANIQUE', MODELISATION='DIS_T',),
        _F(GROUP_MA='FUSIB02',  PHENOMENE='MECANIQUE', MODELISATION='DIS_TR',),
        _F(GROUP_MA='FUSIB03',  PHENOMENE='MECANIQUE', MODELISATION='DIS_T',),
        _F(GROUP_MA='FUSIB04',  PHENOMENE='MECANIQUE', MODELISATION='DIS_TR',),
    ),
)

#
ZERO=DEFI_CONSTANTE(VALE=0.0)
#
def Sinus(t,freq):
    return sin(2.0*pi*freq*t)
Freq01=1.0 ; U01=2.00
# Le déplacement imposé
Depla01 = FORMULE(VALE='U01*Sinus(INST,Freq01)',
                  U01=U01,
                  Sinus=Sinus,
                  Freq01=Freq01,
                  NOM_PARA='INST',)
# Liste d'instant
TempsMaxi=1.50
DeltaPas =0.05

linstS=DEFI_LIST_REEL(
    DEBUT=0.0,
    INTERVALLE=_F(JUSQU_A=TempsMaxi, PAS=DeltaPas,), )

CONDLIM =AFFE_CHAR_MECA_F(MODELE=MODE,
    DDL_IMPO=(
        _F(GROUP_NO='PT1', LIAISON='ENCASTRE',),
        _F(GROUP_NO='PT2', DX=Depla01,  DY=Depla01,  DZ=Depla01,),
        _F(GROUP_NO='PT3', LIAISON='ENCASTRE',),
        _F(GROUP_NO='PT4', DX=Depla01,  DY=Depla01,  DZ=Depla01,
                           DRX=Depla01, DRY=Depla01, DRZ=Depla01),
        _F(GROUP_NO='PT5', DX=Depla01,  DY=Depla01,  DZ=Depla01,),
        _F(GROUP_NO='PT6', DX=Depla01,  DY=Depla01,  DZ=Depla01,
                           DRX=Depla01, DRY=Depla01, DRZ=Depla01),
    ),
)

Sy   =200.0
Su   =Sy + 250.0
Kp   =4.0*Sy/U01
Puiss=1.50

def FctRp(p):
    return Sy + Kp*p/pow(1.0+pow(Kp*p/(Su-Sy),Puiss),1.0/Puiss)

Lt_p =NU.arange(0.0,U01*4.0,0.01)
Lt_rp=list(map( FctRp , Lt_p ))
Lt_p += Sy/Kp
Lt_p=list(Lt_p)
Lt_p.insert(0, 0.0)
Lt_rp.insert(0, 0.0)


fctsy=DEFI_FONCTION(NOM_PARA='DX',
    ABSCISSE=Lt_p,
    ORDONNEE=Lt_rp,
)

# Définition des matériaux
Fusib01 =DEFI_MATERIAU( DIS_ECRO_TRAC=_F(FX= fctsy ), )
Fusib02 =DEFI_MATERIAU( DIS_ECRO_TRAC=_F(FX= fctsy ), )
Fusib03 =DEFI_MATERIAU( DIS_ECRO_TRAC=_F(FX= fctsy ), )
Fusib04 =DEFI_MATERIAU( DIS_ECRO_TRAC=_F(FX= fctsy ), )

CHMAT=AFFE_MATERIAU(
    MAILLAGE=MAIL,
    AFFE=(
      _F(GROUP_MA='FUSIB01',  MATER=Fusib01,),
      _F(GROUP_MA='FUSIB02',  MATER=Fusib02,),
      _F(GROUP_MA='FUSIB03',  MATER=Fusib03,),
      _F(GROUP_MA='FUSIB04',  MATER=Fusib04,),
   ),
)

CARELEM=AFFE_CARA_ELEM(
    MODELE=MODE,
    DISCRET=(
        _F( REPERE='LOCAL',CARA='K_T_D_L',  GROUP_MA='FUSIB01',
            VALE=(Kp, 100.0*Kp, 100.0*Kp,), ),
        _F( REPERE='LOCAL',CARA='K_TR_D_L', GROUP_MA='FUSIB02',
            VALE=(Kp, 100.0*Kp, 100.0*Kp, 100.0*Kp, 100.0*Kp, 100.0*Kp), ),
        _F( REPERE='LOCAL',CARA='K_T_D_N',  GROUP_MA='FUSIB03',
            VALE=(Kp, 100.0*Kp, 100.0*Kp,), ),
        _F( REPERE='LOCAL',CARA='K_TR_D_N', GROUP_MA='FUSIB04',
            VALE=(Kp, 100.0*Kp, 100.0*Kp, 100.0*Kp, 100.0*Kp, 100.0*Kp), ),
   ),
)

LLinst =DEFI_LIST_INST(
    DEFI_LIST=_F(LIST_INST =linstS ),
)

RESU=STAT_NON_LINE(
    MODELE    =MODE,
    CHAM_MATER=CHMAT,
    CARA_ELEM =CARELEM,
    EXCIT=_F(CHARGE=CONDLIM),
    COMPORTEMENT=(
        _F(RELATION='DIS_ECRO_TRAC', GROUP_MA='FUSIB01',),
        _F(RELATION='DIS_ECRO_TRAC', GROUP_MA='FUSIB02',),
        _F(RELATION='DIS_ECRO_TRAC', GROUP_MA='FUSIB03',),
        _F(RELATION='DIS_ECRO_TRAC', GROUP_MA='FUSIB04',),
    ),
    INCREMENT=_F(LIST_INST=LLinst,),
    CONVERGENCE=_F(ARRET='OUI',  ITER_GLOB_MAXI=30,),
    NEWTON=_F(REAC_INCR=1,REAC_ITER=1, MATRICE='TANGENTE',),
)
# --------------------------------------------------------------------------------------------------
#   Résultat sur Fusib01
TABDEPL1=CREA_TABLE(RESU=_F(RESULTAT=RESU,GROUP_MA='FUSIB01',NOM_CHAM='DEPL',TOUT_CMP='OUI',),)
TABSIEF1=CREA_TABLE(RESU=_F(RESULTAT=RESU,GROUP_MA='FUSIB01',NOM_CHAM='SIEF_ELGA',TOUT_CMP='OUI',),)
TABVARI1=CREA_TABLE(RESU=_F(RESULTAT=RESU,GROUP_MA='FUSIB01',NOM_CHAM='VARI_ELGA',TOUT_CMP='OUI',),)

TABDEPL1=CALC_TABLE(reuse=TABDEPL1,TABLE=TABDEPL1,
    ACTION=(
        _F(OPERATION='FILTRE',NOM_PARA='NOEUD',CRIT_COMP='EQ',VALE_K='N2'),
        _F(OPERATION='EXTR',NOM_PARA=('NUME_ORDRE','INST','DX'),)
    ),
)
TABSIEF1=CALC_TABLE(reuse=TABSIEF1,TABLE=TABSIEF1,
    ACTION=(
        _F(OPERATION='FILTRE',NOM_PARA='POINT',CRIT_COMP='EQ',VALE=2),
        _F(OPERATION='EXTR',NOM_PARA=('NUME_ORDRE','INST','N',),)
    ),
)
TABVARI1=CALC_TABLE(reuse=TABVARI1,TABLE=TABVARI1,
    ACTION=(
        _F(OPERATION='FILTRE',NOM_PARA='POINT',CRIT_COMP='EQ',VALE=2),
        _F(OPERATION='EXTR',NOM_PARA=('NUME_ORDRE','INST','V1','V4','V7','V9','V8',),)
    ),
)
TABRES1= CALC_TABLE(TABLE=TABDEPL1,
    ACTION=(
        _F(OPERATION='COMB',TABLE=TABSIEF1,NOM_PARA='NUME_ORDRE'),
        _F(OPERATION='COMB',TABLE=TABVARI1,NOM_PARA='NUME_ORDRE'),
    ),
)
# --------------------------------------------------------------------------------------------------
#   Résultat sur Fusib02
TABDEPL2=CREA_TABLE(RESU=_F(RESULTAT=RESU,GROUP_MA='FUSIB02',NOM_CHAM='DEPL',TOUT_CMP='OUI',),)
TABSIEF2=CREA_TABLE(RESU=_F(RESULTAT=RESU,GROUP_MA='FUSIB02',NOM_CHAM='SIEF_ELGA',TOUT_CMP='OUI',),)
TABVARI2=CREA_TABLE(RESU=_F(RESULTAT=RESU,GROUP_MA='FUSIB02',NOM_CHAM='VARI_ELGA',TOUT_CMP='OUI',),)
TABDEPL2=CALC_TABLE(reuse=TABDEPL2,TABLE=TABDEPL2,
    ACTION=(
        _F(OPERATION='FILTRE',NOM_PARA='NOEUD',CRIT_COMP='EQ',VALE_K='N4'),
        _F(OPERATION='EXTR',NOM_PARA=('NUME_ORDRE','INST','DX'),)
    ),
)
TABSIEF2=CALC_TABLE(reuse=TABSIEF2,TABLE=TABSIEF2,
    ACTION=(
        _F(OPERATION='FILTRE',NOM_PARA='POINT',CRIT_COMP='EQ',VALE=2),
        _F(OPERATION='EXTR',NOM_PARA=('NUME_ORDRE','INST','N',),)
    ),
)
TABVARI2=CALC_TABLE(reuse=TABVARI2,TABLE=TABVARI2,
    ACTION=(
        _F(OPERATION='FILTRE',NOM_PARA='POINT',CRIT_COMP='EQ',VALE=2),
        _F(OPERATION='EXTR',NOM_PARA=('NUME_ORDRE','INST','V1','V4','V7','V9','V8',),)
    ),
)
TABRES2= CALC_TABLE(TABLE=TABDEPL2,
    ACTION=(
        _F(OPERATION='COMB',TABLE=TABSIEF2,NOM_PARA='NUME_ORDRE'),
        _F(OPERATION='COMB',TABLE=TABVARI2,NOM_PARA='NUME_ORDRE'),
    ),
)
# --------------------------------------------------------------------------------------------------
#   Résultat sur Fusib03
TABDEPL3=CREA_TABLE(RESU=_F(RESULTAT=RESU,GROUP_MA='FUSIB03',NOM_CHAM='DEPL',TOUT_CMP='OUI',),)
TABSIEF3=CREA_TABLE(RESU=_F(RESULTAT=RESU,GROUP_MA='FUSIB03',NOM_CHAM='SIEF_ELGA',TOUT_CMP='OUI',),)
TABVARI3=CREA_TABLE(RESU=_F(RESULTAT=RESU,GROUP_MA='FUSIB03',NOM_CHAM='VARI_ELGA',TOUT_CMP='OUI',),)
TABDEPL3=CALC_TABLE(reuse=TABDEPL3,TABLE=TABDEPL3,
    ACTION=(
        _F(OPERATION='FILTRE',NOM_PARA='NOEUD',CRIT_COMP='EQ',VALE_K='N5'),
        _F(OPERATION='EXTR',NOM_PARA=('NUME_ORDRE','INST','DX'),)
    ),
)
TABSIEF3=CALC_TABLE(reuse=TABSIEF3,TABLE=TABSIEF3,
    ACTION=(
        _F(OPERATION='FILTRE',NOM_PARA='POINT',CRIT_COMP='EQ',VALE=1),
        _F(OPERATION='EXTR',NOM_PARA=('NUME_ORDRE','INST','N',),)
    ),
)
TABVARI3=CALC_TABLE(reuse=TABVARI3,TABLE=TABVARI3,
    ACTION=(
        _F(OPERATION='FILTRE',NOM_PARA='POINT',CRIT_COMP='EQ',VALE=1),
        _F(OPERATION='EXTR',NOM_PARA=('NUME_ORDRE','INST','V1','V4','V7','V9','V8',),)
    ),
)
TABRES3= CALC_TABLE(TABLE=TABDEPL3,
    ACTION=(
        _F(OPERATION='COMB',TABLE=TABSIEF3,NOM_PARA='NUME_ORDRE'),
        _F(OPERATION='COMB',TABLE=TABVARI3,NOM_PARA='NUME_ORDRE'),
    ),
)
# --------------------------------------------------------------------------------------------------
#   Résultat sur Fusib04
TABDEPL4=CREA_TABLE(RESU=_F(RESULTAT=RESU,GROUP_MA='FUSIB04',NOM_CHAM='DEPL',TOUT_CMP='OUI',),)
TABSIEF4=CREA_TABLE(RESU=_F(RESULTAT=RESU,GROUP_MA='FUSIB04',NOM_CHAM='SIEF_ELGA',TOUT_CMP='OUI',),)
TABVARI4=CREA_TABLE(RESU=_F(RESULTAT=RESU,GROUP_MA='FUSIB04',NOM_CHAM='VARI_ELGA',TOUT_CMP='OUI',),)
TABDEPL4=CALC_TABLE(reuse=TABDEPL4,TABLE=TABDEPL4,
    ACTION=(
        _F(OPERATION='FILTRE',NOM_PARA='NOEUD',CRIT_COMP='EQ',VALE_K='N6'),
        _F(OPERATION='EXTR',NOM_PARA=('NUME_ORDRE','INST','DX'),)
    ),
)
TABSIEF4=CALC_TABLE(reuse=TABSIEF4,TABLE=TABSIEF4,
    ACTION=(
        _F(OPERATION='FILTRE',NOM_PARA='POINT',CRIT_COMP='EQ',VALE=1),
        _F(OPERATION='EXTR',NOM_PARA=('NUME_ORDRE','INST','N',),)
    ),
)
TABVARI4=CALC_TABLE(reuse=TABVARI4,TABLE=TABVARI4,
    ACTION=(
        _F(OPERATION='FILTRE',NOM_PARA='POINT',CRIT_COMP='EQ',VALE=1),
        _F(OPERATION='EXTR',NOM_PARA=('NUME_ORDRE','INST','V1','V4','V7','V9','V8',),)
    ),
)
TABRES4=CALC_TABLE(TABLE=TABDEPL4,
    ACTION=(
        _F(OPERATION='COMB',TABLE=TABSIEF4,NOM_PARA='NUME_ORDRE'),
        _F(OPERATION='COMB',TABLE=TABVARI4,NOM_PARA='NUME_ORDRE'),
    ),
)
#
"""
IMPR_RESU(FORMAT='RESULTAT', RESU=_F(RESULTAT=RESU,),)

IMPR_TABLE(UNITE=38,TABLE=TABRES1,FORMAT_R='E17.10')
IMPR_TABLE(UNITE=38,TABLE=TABRES2,FORMAT_R='E17.10')
IMPR_TABLE(UNITE=38,TABLE=TABRES3,FORMAT_R='E17.10')
IMPR_TABLE(UNITE=38,TABLE=TABRES4,FORMAT_R='E17.10')
"""
#
# --------------------------------------------------------------------------------------------------
#NUME_ORDRE
#    INST               DX                 N                  V1                 V4                 V7                 V9                V8
ResuIntgr={
 1: (5.0000000000E-02,  6.1803398875E-01,  2.4479779327E+02,  2.4479779327E+02,  6.1803398875E-01,  1.4025329360E+00,  6.0395055641E-03,  6.0395055641E-03,),
 2: (1.0000000000E-01,  1.1755705046E+00,  3.6359182479E+02,  3.6359182479E+02,  1.1755705046E+00,  8.6843092800E+01,  2.6659094260E-01,  2.6659094260E-01,),
 3: (1.5000000000E-01,  1.6180339887E+00,  3.9812608291E+02,  3.9812608291E+02,  1.6180339887E+00,  2.2346703218E+02,  6.2271878148E-01,  6.2271878148E-01,),
 4: (2.0000000000E-01,  1.9021130326E+00,  4.1019465908E+02,  4.1019465908E+02,  1.9021130326E+00,  3.2620573892E+02,  8.7662638489E-01,  8.7662638489E-01,),
 5: (2.5000000000E-01,  2.0000000000E+00,  4.1334696516E+02,  4.1334696516E+02,  2.0000000000E+00,  3.6327103124E+02,  9.6663258710E-01,  9.6663258710E-01,),
 6: (3.0000000000E-01,  1.9021130326E+00,  3.7419217820E+02,  3.7419217820E+02,  1.9021130326E+00,  3.6327103124E+02,  9.6663258710E-01,  9.6663258710E-01,),
 7: (3.5000000000E-01,  1.6180339887E+00,  2.6056056066E+02,  2.6056056066E+02,  1.6180339887E+00,  3.6327103124E+02,  9.6663258710E-01,  9.6663258710E-01,),
 8: (4.0000000000E-01,  1.1755705046E+00,  8.3575166995E+01,  8.3575166995E+01,  1.1755705046E+00,  3.6327103124E+02,  9.6663258710E-01,  9.6663258710E-01,),
 9: (4.5000000000E-01,  6.1803398875E-01, -1.3943943934E+02, -1.3943943934E+02,  6.1803398875E-01,  3.6327103124E+02,  9.6663258710E-01,  9.6663258710E-01,),
11: (5.5000000000E-01, -6.1803398875E-01, -4.2538927701E+02, -4.2538927701E+02, -6.1803398875E-01,  5.8218476568E+02,  4.4543920378E-01,  1.4878259704E+00,),
12: (6.0000000000E-01, -1.1755705046E+00, -4.3218671109E+02, -4.3218671109E+02, -1.1755705046E+00,  8.1412906324E+02, -9.5103726855E-02,  2.0283689010E+00,),
13: (6.5000000000E-01, -1.6180339887E+00, -4.3565267662E+02, -4.3565267662E+02, -1.6180339887E+00,  1.0024080700E+03, -5.2890229720E-01,  2.4621674714E+00,),
14: (7.0000000000E-01, -1.9021130326E+00, -4.3733359687E+02, -4.3733359687E+02, -1.9021130326E+00,  1.1245805011E+03, -8.0877904042E-01,  2.7420442146E+00,),
15: (7.5000000000E-01, -2.0000000000E+00, -4.3783890390E+02, -4.3783890390E+02, -2.0000000000E+00,  1.1668619814E+03, -9.0540274025E-01,  2.8386679144E+00,),
16: (8.0000000000E-01, -1.9021130326E+00, -3.9868411694E+02, -3.9868411694E+02, -1.9021130326E+00,  1.1668619814E+03, -9.0540274025E-01,  2.8386679144E+00,),
17: (8.5000000000E-01, -1.6180339887E+00, -2.8505249940E+02, -2.8505249940E+02, -1.6180339887E+00,  1.1668619814E+03, -9.0540274025E-01,  2.8386679144E+00,),
18: (9.0000000000E-01, -1.1755705046E+00, -1.0806710573E+02, -1.0806710573E+02, -1.1755705046E+00,  1.1668619814E+03, -9.0540274025E-01,  2.8386679144E+00,),
19: (9.5000000000E-01, -6.1803398875E-01,  1.1494750060E+02,  1.1494750060E+02, -6.1803398875E-01,  1.1668619814E+03, -9.0540274025E-01,  2.8386679144E+00,),
21: (1.0500000000E+00,  6.1803398875E-01,  4.3970639868E+02,  4.3970639868E+02,  6.1803398875E-01,  1.3529947826E+03, -4.8123200796E-01,  3.2628386467E+00,),
22: (1.1000000000E+00,  1.1755705046E+00,  4.4151193260E+02,  4.4151193260E+02,  1.1755705046E+00,  1.5966883269E+03,  7.1790673086E-02,  3.8158613278E+00,),
# ... 7 like lines cut
}

Lpara=[('DX',1),('N',2),('V1',3),('V4',4),('V7',5),('V9',6),('V8',7)]
for nume_ordre in list(ResuIntgr.keys()):
    for para,indx in Lpara:
        TEST_TABLE(TABLE=TABRES1,
            FILTRE=_F(NOM_PARA='NUME_ORDRE', CRIT_COMP='EQ', VALE_I= nume_ordre),
            NOM_PARA=para, VALE_CALC=ResuIntgr[nume_ordre][indx],
            VALE_REFE=ResuIntgr[nume_ordre][indx], REFERENCE='SOURCE_EXTERNE', PRECISION=1.0E-06,
        )
        TEST_TABLE(TABLE=TABRES2,
            FILTRE=_F(NOM_PARA='NUME_ORDRE', CRIT_COMP='EQ', VALE_I= nume_ordre),
            NOM_PARA=para, VALE_CALC=ResuIntgr[nume_ordre][indx],
            VALE_REFE=ResuIntgr[nume_ordre][indx], REFERENCE='SOURCE_EXTERNE', PRECISION=1.0E-06,
        )
        TEST_TABLE(TABLE=TABRES3,
            FILTRE=_F(NOM_PARA='NUME_ORDRE', CRIT_COMP='EQ', VALE_I= nume_ordre),
            NOM_PARA=para, VALE_CALC=ResuIntgr[nume_ordre][indx],
            VALE_REFE=ResuIntgr[nume_ordre][indx], REFERENCE='SOURCE_EXTERNE', PRECISION=1.0E-06,
        )
        TEST_TABLE(TABLE=TABRES4,
            FILTRE=_F(NOM_PARA='NUME_ORDRE', CRIT_COMP='EQ', VALE_I= nume_ordre),
            NOM_PARA=para, VALE_CALC=ResuIntgr[nume_ordre][indx],
            VALE_REFE=ResuIntgr[nume_ordre][indx], REFERENCE='SOURCE_EXTERNE', PRECISION=1.0E-06,
        )
FIN()
