# coding=utf-8
# --------------------------------------------------------------------
# Copyright (C) 1991 - 2019 - EDF R&D - www.code-aster.org
# This file is part of code_aster.
#
# code_aster is free software: you can redistribute it and/or modify
# it under the terms of the GNU General Public License as published by
# the Free Software Foundation, either version 3 of the License, or
# (at your option) any later version.
#
# code_aster is distributed in the hope that it will be useful,
# but WITHOUT ANY WARRANTY; without even the implied warranty of
# MERCHANTABILITY or FITNESS FOR A PARTICULAR PURPOSE.  See the
# GNU General Public License for more details.
#
# You should have received a copy of the GNU General Public License
# along with code_aster.  If not, see <http://www.gnu.org/licenses/>.
# --------------------------------------------------------------------

DEBUT(CODE=_F(NIV_PUB_WEB='INTERNET'), DEBUG=_F(SDVERI='OUI'))

# DEFINITION DU PROBLEME
# =======================

MA0 = LIRE_MAILLAGE(FORMAT='MED',)

MA = CREA_MAILLAGE(MAILLAGE=MA0,
                   LINE_QUAD=_F(TOUT='OUI',),)

E = 200000.0

MATERIAU = DEFI_MATERIAU(ELAS=_F(E=E,
                                 NU=0.3,),
                         ECRO_LINE=_F(D_SIGM_EPSI=1000.0,
                                      SY=200.0,),)

CH_MATER = AFFE_MATERIAU(MAILLAGE=MA,
                         AFFE=_F(TOUT='OUI',
                                 MATER=MATERIAU,),)

INSTANTS = DEFI_LIST_REEL(DEBUT=0.0,
                          INTERVALLE=(_F(JUSQU_A=0.1,
                                         NOMBRE=10,),
                                      _F(JUSQU_A=1.0,
                                         NOMBRE=10,),),)

RAMPE = DEFI_FONCTION(NOM_PARA='INST',
                      VALE=(0.0, 0.0,
                            1.0, 1.0,),)

DEFLIST = DEFI_LIST_INST(DEFI_LIST=_F(LIST_INST=INSTANTS),
                         ECHEC=_F(EVENEMENT='ERREUR',
                                  ACTION='DECOUPE',
                                  SUBD_METHODE='MANUEL',
                                  SUBD_PAS=4,
                                  SUBD_PAS_MINI=0.001),)

# Nombre de calculs :
nb_calcul = 2
model = ['D_PLAN_HHO_121', 'D_PLAN_HHO_222']

Test1 = [233.748562074, 233.774109504]
Test2 = [241.323236201, 241.124053456]
Test3 = [297.188196281, 297.424746572]


for i in range(nb_calcul):

    MO = AFFE_MODELE(MAILLAGE=MA,
                     AFFE=_F(GROUP_MA='SURF',
                             PHENOMENE='MECANIQUE',
                             MODELISATION=model[i],),)

    SYM = AFFE_CHAR_CINE(MODELE=MO,
                         MECA_IMPO=(_F(GROUP_MA=('LCD', 'LBC',),
                                       DY=0.0,),
                                    _F(GROUP_MA=('LDE', 'LEF',),
                                       DX=0.0,),),)

    TRAC = AFFE_CHAR_CINE(MODELE=MO,
                          MECA_IMPO=_F(GROUP_MA='LFG',
                                       DY=0.1,), INFO=1,)

# CALCUL
# ========

    RESU = STAT_NON_LINE(MODELE=MO,
                         CHAM_MATER=CH_MATER,
                         EXCIT=(_F(CHARGE=TRAC,
                                   FONC_MULT=RAMPE,),
                                _F(CHARGE=SYM,),),
                         COMPORTEMENT=_F(RELATION='VMIS_ISOT_LINE',
                                         DEFORMATION='GDEF_LOG'),
                         INCREMENT=_F(LIST_INST=DEFLIST),
                         SOLVEUR=_F(METHODE='MUMPS',),
                         NEWTON=_F(REAC_ITER=1,),
                         ARCHIVAGE=_F(LIST_INST=INSTANTS,),)

# POST TRAITEMENT
# =================

    RESU = CALC_CHAMP(reuse=RESU, RESULTAT=RESU,
                      CONTRAINTE=('SIGM_ELNO', 'SIGM_NOEU',),)

    S_T = MACR_LIGN_COUPE(RESULTAT=RESU,  NOM_CHAM='SIGM_NOEU', INST=1.0,
                          LIGN_COUPE=(
                              _F(TYPE='SEGMENT', NB_POINTS=11, INTITULE='S_EXT', NOM_CMP='SIYY',
                                 COOR_ORIG=(0.0, 1.0,),
                                 COOR_EXTR=(5.0, 1.0,),
                                 )))

# IMPR_TABLE(TABLE=S_T,);


# TESTS
# =======

# ON TESTE PAR RAPPORT A LA MODELISATION B : ELEMENTS QUASI-INCOMPRESSIBLES

    TEST_TABLE(REFERENCE='AUTRE_ASTER',
               PRECISION=0.004,
               VALE_CALC=Test1[i],
               VALE_REFE=234.17369549492,
               NOM_PARA='SIYY',
               TABLE=S_T,
               FILTRE=_F(NOM_PARA='COOR_X', VALE=0.0,),
               )

    TEST_TABLE(REFERENCE='AUTRE_ASTER',
               PRECISION=0.004,
               VALE_CALC=Test2[i],
               VALE_REFE=241.963621081,
               NOM_PARA='SIYY',
               TABLE=S_T,
               FILTRE=_F(NOM_PARA='COOR_X', VALE=1.0,),
               )

    TEST_TABLE(REFERENCE='AUTRE_ASTER',
               PRECISION=0.004,
               VALE_CALC=Test3[i],
               VALE_REFE=298.02665342,
               NOM_PARA='SIYY',
               TABLE=S_T,
               FILTRE=_F(NOM_PARA='COOR_X', VALE=3.0,),
               )

# -------------------------------------------------------------------------------

    DETRUIRE(CONCEPT=_F(NOM=(SYM, MO, RESU, S_T, TRAC,),),
             INFO=1,)

FIN()
