# coding=utf-8
# --------------------------------------------------------------------
# Copyright (C) 1991 - 2020 - EDF R&D - www.code-aster.org
# This file is part of code_aster.
#
# code_aster is free software: you can redistribute it and/or modify
# it under the terms of the GNU General Public License as published by
# the Free Software Foundation, either version 3 of the License, or
# (at your option) any later version.
#
# code_aster is distributed in the hope that it will be useful,
# but WITHOUT ANY WARRANTY; without even the implied warranty of
# MERCHANTABILITY or FITNESS FOR A PARTICULAR PURPOSE.  See the
# GNU General Public License for more details.
#
# You should have received a copy of the GNU General Public License
# along with code_aster.  If not, see <http://www.gnu.org/licenses/>.
# --------------------------------------------------------------------

########################################################################
#          TEST DE VERIFICATION EN PLASTICITE INCOMPRESSIBLE           #
#                       MEMBRANE DE COOK                               #
########################################################################

DEBUT(PAR_LOT='OUI', CODE=_F(NIV_PUB_WEB='INTERNET'), DEBUG=_F(SDVERI='OUI'),)


mesh0 = LIRE_MAILLAGE(FORMAT='MED')

mesh1 = CREA_MAILLAGE(MAILLAGE=mesh0, QUAD_LINE=_F(TOUT='OUI'))

mesh = CREA_MAILLAGE(MAILLAGE=mesh1, TETRA4_8=_F(TOUT='OUI'))

mesh = MODI_MAILLAGE(reuse=mesh, MAILLAGE=mesh,
                     ORIE_PEAU_3D=_F(GROUP_MA=('Encast', 'load',),),)

ctrac = LIRE_FONCTION(UNITE=21,
                      NOM_PARA='EPSI',
                      PROL_DROITE='LINEAIRE',)

E = 206.9
mater = DEFI_MATERIAU(
    TRACTION=_F(SIGM=ctrac,), ELAS=_F(E=E, NU=0.29)
)

fieldmat = AFFE_MATERIAU(
    AFFE=_F(MATER=(mater, ), TOUT='OUI'), MAILLAGE=mesh,
)

rampe = DEFI_FONCTION(NOM_PARA='INST', VALE=(
    0.0, 0.0, 1.0, 1.0), PROL_DROITE='LINEAIRE', PROL_GAUCHE='EXCLU',)

listr = DEFI_LIST_REEL(DEBUT=0.0, INTERVALLE=(
    _F(JUSQU_A=0.4, NOMBRE=1),
    _F(JUSQU_A=0.8, NOMBRE=4),
    _F(JUSQU_A=1.0, NOMBRE=4),
),)

times = DEFI_LIST_INST(
    DEFI_LIST=_F(LIST_INST=listr),
    ECHEC=_F(ACTION='DECOUPE', EVENEMENT='ERREUR', SUBD_NIVEAU=4)
)


model = AFFE_MODELE(
    AFFE=_F(MODELISATION=('3D_HHO', ), FORMULATION='LINEAIRE', PHENOMENE='MECANIQUE', TOUT='OUI'),
    MAILLAGE=mesh
)

depl = AFFE_CHAR_CINE(
    MECA_IMPO=_F(DX=0.0, DY=0.0, GROUP_MA=('Encast', )), MODELE=model, INFO=1,
)

plan = AFFE_CHAR_CINE(
    MECA_IMPO=_F(DZ=0.0, TOUT='OUI'), MODELE=model, INFO=1,
)

load = AFFE_CHAR_MECA(
    FORCE_FACE=_F(FY=0.3125, GROUP_MA=('load', )), MODELE=model
)

resnonl = STAT_NON_LINE(
    CHAM_MATER=fieldmat,
    COMPORTEMENT=_F(DEFORMATION='GDEF_LOG',
                    RELATION='VMIS_ISOT_TRAC', TOUT='OUI'),
    CONVERGENCE=_F(ITER_GLOB_MAXI=12, RESI_GLOB_RELA=1e-6),
    EXCIT=(
        _F(CHARGE=depl, TYPE_CHARGE='FIXE_CSTE'),
        _F(CHARGE=plan, TYPE_CHARGE='FIXE_CSTE'),
        _F(CHARGE=load, FONC_MULT=rampe,
           TYPE_CHARGE='FIXE_CSTE'),
    ),
    INCREMENT=_F(LIST_INST=times),
    MODELE=model,
    NEWTON=_F(MATRICE='TANGENTE', PREDICTION='TANGENTE', REAC_ITER=1,),
    SOLVEUR=_F(METHODE='MUMPS',),
    HHO=_F(OPTIMISATION='TEMPS', STABILISATION='AUTO',),
    INFO=1,
)

resnonl = CALC_CHAMP(
    reuse=resnonl,
    CHAM_MATER=fieldmat,
    CRITERES=('SIEQ_NOEU',),
    MODELE=model,
    RESULTAT=resnonl,
)

TEST_RESU(RESU=_F(INST=1.0,
                  GROUP_NO=('A', ),
                  REFERENCE='AUTRE_ASTER',
                  RESULTAT=resnonl,
                  NOM_CHAM='DEPL',
                  NOM_CMP='DY',
                  VALE_CALC=7.006630454983615,
                  VALE_REFE=7.00031,
                  CRITERE='RELATIF',
                  PRECISION=2.E-3,),
          )

TEST_RESU(RESU=_F(INST=1.0,
                  GROUP_NO=('A', ),
                  REFERENCE='AUTRE_ASTER',
                  RESULTAT=resnonl,
                  NOM_CHAM='DEPL',
                  NOM_CMP='DX',
                  VALE_CALC=-6.232083507370928,
                  VALE_REFE=-6.23907,
                  CRITERE='RELATIF',
                  PRECISION=1.E-2,),
          )

TEST_RESU(RESU=_F(INST=1.0,
                  GROUP_NO=('A',),
                  RESULTAT=resnonl,
                  NOM_CHAM='SIEQ_NOEU',
                  NOM_CMP='TRSIG',
                  VALE_CALC=-0.01825686610404665,
                  CRITERE='RELATIF',),
          )

TEST_RESU(RESU=_F(INST=1.0,
                  GROUP_NO=('C', ),
                  RESULTAT=resnonl,
                  NOM_CHAM='DEPL',
                  NOM_CMP='DY',
                  VALE_CALC=1.4827369121017604,
                  CRITERE='RELATIF',),
          )

TEST_RESU(RESU=_F(INST=1.0,
                  GROUP_NO=('C', ),
                  RESULTAT=resnonl,
                  NOM_CHAM='DEPL',
                  NOM_CMP='DX',
                  VALE_CALC=-0.2116072966640925,
                  CRITERE='RELATIF',),
          )

TEST_RESU(RESU=_F(INST=1.0,
                  GROUP_NO=('C', ),
                  RESULTAT=resnonl,
                  NOM_CHAM='SIEQ_NOEU',
                  NOM_CMP='TRSIG',
                  VALE_CALC=0.8192058115698024,
                  CRITERE='RELATIF',),
          )


FIN()
