# coding=utf-8
# --------------------------------------------------------------------
# Copyright (C) 1991 - 2020 - EDF R&D - www.code-aster.org
# This file is part of code_aster.
#
# code_aster is free software: you can redistribute it and/or modify
# it under the terms of the GNU General Public License as published by
# the Free Software Foundation, either version 3 of the License, or
# (at your option) any later version.
#
# code_aster is distributed in the hope that it will be useful,
# but WITHOUT ANY WARRANTY; without even the implied warranty of
# MERCHANTABILITY or FITNESS FOR A PARTICULAR PURPOSE.  See the
# GNU General Public License for more details.
#
# You should have received a copy of the GNU General Public License
# along with code_aster.  If not, see <http://www.gnu.org/licenses/>.
# --------------------------------------------------------------------

DEBUT(CODE=_F(
              NIV_PUB_WEB='INTERNET',),
      DEBUG=_F(SDVERI='NON',),);

#......................................................................
# PLAQUE CARREE EN TRACTION CISAILLEMENT CALCUL 3D
# ELASTOPLASTICITE  ISOTROPE VON MISES
#......................................................................

CREA_LIB_MFRONT(UNITE_MFRONT=38,UNITE_LIBRAIRIE=39)

MA=LIRE_MAILLAGE(FORMAT="ASTER",);

MO=AFFE_MODELE(MAILLAGE=MA,

               AFFE=_F(TOUT='OUI',
                       PHENOMENE='MECANIQUE',
                       MODELISATION='3D',),);

ACIER=DEFI_MATERIAU(ELAS=_F(E=195000.,
                            NU=0.3,),
                         MFRONT=_F(LISTE_COEF=(181., 1930, 195000, 0.3,
                                        ),)
                                ,)


CM=AFFE_MATERIAU(MAILLAGE=MA,
                 AFFE=_F(TOUT='OUI',
                         MATER=ACIER,),);

SIGMA_F=DEFI_FONCTION(NOM_PARA='INST',VALE=(0.0,0.0,
                            1.0,151.2,
                            2.0,257.2,
                            3.0,0.0,
                            ),PROL_DROITE='EXCLU',PROL_GAUCHE='EXCLU',);

TAU_F=DEFI_FONCTION(NOM_PARA='INST',VALE=(0.0,0.0,
                          1.0,93.1,
                          2.0,33.1,
                          3.0,0.0,
                          ),PROL_DROITE='EXCLU',PROL_GAUCHE='EXCLU',);

TRACTION=AFFE_CHAR_MECA(MODELE=MO,
                        FORCE_FACE=_F(MAILLE='GAUCHE',
                                      FX=-1.,),);

CISAIL=AFFE_CHAR_MECA(MODELE=MO,
                      FORCE_FACE=(_F(MAILLE='GAUCHE',
                                     FY=-1.,),
                                  _F(MAILLE='DROITE',
                                     FY=1.,),
                                  _F(MAILLE='HAUT',
                                     FX=1.,),
                                  _F(MAILLE='BAS',
                                     FX=-1.,),),);

LIAISON=AFFE_CHAR_MECA(MODELE=MO,
                       DDL_IMPO=(_F(NOEUD='NO4',
                                    DX=0.,
                                    DY=0.,),
                                 _F(NOEUD='NO8',
                                    DX=0.,
                                    DY=0.,
                                    DZ=0.,),
                                 _F(NOEUD='NO2',
                                    DX=0.,),
                                 _F(NOEUD='NO6',
                                    DX=0.,),),);

L_INST=DEFI_LIST_REEL(DEBUT=0.0,
                      INTERVALLE=(_F(JUSQU_A=0.1,
                                     NOMBRE=1,),
                                  _F(JUSQU_A=0.9,
                                     NOMBRE=10,),
                                  _F(JUSQU_A=1.0,
                                     NOMBRE=1,),
                                  _F(JUSQU_A=2.0,
                                     NOMBRE=40,),
                                  _F(JUSQU_A=3.0,
                                     NOMBRE=1,),),);

U=STAT_NON_LINE(MODELE=MO,
                CHAM_MATER=CM,
                EXCIT=(_F(CHARGE=LIAISON,),
                       _F(CHARGE=TRACTION,
                          FONC_MULT=SIGMA_F,),
                       _F(CHARGE=CISAIL,
                          FONC_MULT=TAU_F,),),
                COMPORTEMENT=_F(RELATION='MFRONT',
                                NOM_ROUTINE='asterplasticity',
                                UNITE_LIBRAIRIE=39,
                                ITER_INTE_MAXI = 30,
                                RESI_INTE_MAXI = 1.E-8),
                INCREMENT=_F(LIST_INST=L_INST,),
                NEWTON=_F(MATRICE='TANGENTE',
                          REAC_ITER=3,),
                RECH_LINEAIRE=_F(RHO_MAX=150),
                SOLVEUR=_F(METHODE='MUMPS',
                             POSTTRAITEMENTS='FORCE',
                             RESI_RELA=1e-06),
                CONVERGENCE=_F(RESI_GLOB_RELA=1e-08),
                )


U=CALC_CHAMP(reuse=U,RESULTAT=U,CONTRAINTE=('SIGM_ELNO'),VARI_INTERNE=('VARI_ELNO'),DEFORMATION=('EPSI_ELGA'))


U=CALC_CHAMP(reuse=U,RESULTAT=U,DEFORMATION=('EPSP_ELGA'))


U=CALC_CHAMP(reuse=U,RESULTAT=U,DEFORMATION=('EPSI_ELNO'))


U=CALC_CHAMP(reuse=U,RESULTAT=U,CRITERES=('SIEQ_ELGA'))


VARI=CREA_CHAMP(TYPE_CHAM='ELNO_VARI_R',
                OPERATION='EXTR',
                RESULTAT=U,
                NOM_CHAM='VARI_ELNO',
                INST=1.,);

TEST_RESU(CHAM_ELEM=_F(NOEUD='NO2',
                       NOM_CMP='V7',
                       MAILLE='CUBE',
                       CHAM_GD=VARI,
                       VALE_CALC=0.020547265463595,))

TEST_RESU(RESU=(_F(INST=1.0,
                   RESULTAT=U,
                   NOM_CHAM='SIGM_ELNO',
                   NOEUD='NO2',
                   NOM_CMP='SIXX',
                   VALE_CALC=151.20000000002,
                   VALE_REFE=151.2,
                   REFERENCE='ANALYTIQUE',
                   PRECISION=1.E-3,
                   MAILLE='CUBE',),
                _F(INST=1.0,
                   RESULTAT=U,
                   NOM_CHAM='SIGM_ELNO',
                   NOEUD='NO2',
                   NOM_CMP='SIXY',
                   VALE_CALC=93.100000000001,
                   VALE_REFE=93.1,
                   REFERENCE='ANALYTIQUE',
                   PRECISION=1.E-3,
                   MAILLE='CUBE',),
                _F(INST=1.0,
                   RESULTAT=U,
                   NOM_CHAM='EPSI_ELNO',
                   NOEUD='NO2',
                   NOM_CMP='EPXX',
                   VALE_CALC=0.014829713606886,
                   VALE_REFE=0.0148297,
                   REFERENCE='ANALYTIQUE',
                   PRECISION=1.E-3,
                   MAILLE='CUBE',),
                _F(INST=1.0,
                   RESULTAT=U,
                   NOM_CHAM='EPSI_ELNO',
                   NOEUD='NO2',
                   NOM_CMP='EPXY',
                   VALE_CALC=0.013601401082429,
                   VALE_REFE=0.0136014,
                   REFERENCE='ANALYTIQUE',
                   PRECISION=1.E-3,
                   MAILLE='CUBE',),
                _F(INST=1.0,
                   POINT=1,
                   RESULTAT=U,
                   NOM_CHAM='EPSP_ELGA',
                   NOM_CMP='EPXX',
                   VALE_CALC=0.014054328991501,
                   VALE_REFE=0.014054,
                   REFERENCE='ANALYTIQUE',
                   PRECISION=1.E-3,
                   MAILLE='CUBE',),
                _F(INST=1.0,
                   POINT=1,
                   RESULTAT=U,
                   NOM_CHAM='EPSP_ELGA',
                   NOM_CMP='EPXY',
                   VALE_CALC=0.012980734415762,
                   VALE_REFE=0.012981,
                   REFERENCE='ANALYTIQUE',
                   PRECISION=1.E-3,
                   MAILLE='CUBE',),
                _F(INST=2.0,
                   RESULTAT=U,
                   NOM_CHAM='EPSI_ELNO',
                   NOEUD='NO2',
                   NOM_CMP='EPXX',
                   VALE_CALC=0.035324711958965,
                   VALE_REFE=0.035265,
                   REFERENCE='ANALYTIQUE',
                   PRECISION=1.E-2,
                   MAILLE='CUBE',),
                _F(INST=2.0,
                   RESULTAT=U,
                   NOM_CHAM='EPSI_ELNO',
                   NOEUD='NO2',
                   NOM_CMP='EPXY',
                   VALE_CALC=0.020351415903945,
                   VALE_REFE=0.020471,
                   REFERENCE='ANALYTIQUE',
                   PRECISION=1.E-2,
                   MAILLE='CUBE',),
                _F(INST=2.0,
                   POINT=1,
                   RESULTAT=U,
                   NOM_CHAM='EPSP_ELGA',
                   NOM_CMP='EPXX',
                   VALE_CALC=0.034005737600229,
                   VALE_REFE=0.033946,
                   REFERENCE='ANALYTIQUE',
                   PRECISION=1.E-2,
                   MAILLE='CUBE',),
                _F(INST=2.0,
                   POINT=1,
                   RESULTAT=U,
                   NOM_CHAM='EPSP_ELGA',
                   NOM_CMP='EPXY',
                   VALE_CALC=0.020130749237395,
                   VALE_REFE=0.02025,
                   REFERENCE='ANALYTIQUE',
                   PRECISION=1.E-2,
                   MAILLE='CUBE',),
                _F(INST=1.0,
                   POINT=1,
                   RESULTAT=U,
                   NOM_CHAM='SIEQ_ELGA',
                   NOM_CMP='TRIAX',
                   VALE_CALC=0.22799999050003,
                   VALE_REFE=0.228,
                   REFERENCE='ANALYTIQUE',
                   MAILLE='CUBE',),
                _F(INST=2.0,
                   POINT=8,
                   RESULTAT=U,
                   NOM_CHAM='SIEQ_ELGA',
                   NOM_CMP='TRIAX',
                   VALE_CALC=0.32534865272784,
                   VALE_REFE=0.325349,
                   REFERENCE='ANALYTIQUE',
                   MAILLE='CUBE',),
                ),
          )

FIN()
